@<TRIPOS>MOLECULE
*****
   57    60     1     0     0
SMALL
bcc


@<TRIPOS>ATOM
      1 C            4.4630     3.4910    -1.6390 c3         1 UNL       0.115700
      2 O            5.6150     4.0730    -1.0400 os         1 UNL      -0.308900
      3 C1           5.3980     5.2340    -0.3700 cc         1 UNL       0.084100
      4 C2           4.5560     5.4010     0.7170 cd         1 UNL      -0.170400
      5 S            4.6510     6.9970     1.3420 ss         1 UNL       0.089200
      6 C3           5.8610     7.4340     0.2200 cd         1 UNL      -0.169100
      7 C4           6.1710     6.4000    -0.6330 cc         1 UNL      -0.208000
      8 C5           3.6230     4.4180     1.3370 c3         1 UNL       0.240100
      9 N            3.8810     4.1360     2.7450 n3         1 UNL      -0.825200
     10 C6           3.0800     2.9860     3.1860 c3         1 UNL       0.158800
     11 C7           3.2270     1.6660     2.3950 c3         1 UNL      -0.114400
     12 C8           4.6060     0.8870     2.4420 c3         1 UNL      -0.081300
     13 C9           5.6830     1.5940     3.3190 c3         1 UNL      -0.117400
     14 C10          6.8580     0.7320     3.7920 c3         1 UNL       0.127400
     15 O1           6.5120    -0.5850     4.2280 os         1 UNL      -0.414600
     16 C11          5.5150    -1.3410     3.5090 c3         1 UNL       0.153800
     17 C12          4.2960    -0.4470     3.2030 c3         1 UNL      -0.087400
     18 C13          5.0900    -2.5430     4.4010 c3         1 UNL      -0.087400
     19 C14          5.3030    -3.8280     3.5860 c3         1 UNL      -0.075900
     20 C15          6.3990    -3.4950     2.6230 c3         1 UNL      -0.075900
     21 C16          6.0700    -2.0770     2.2780 c3         1 UNL      -0.087400
     22 C17          5.1400     0.6270     0.9890 ca         1 UNL       0.421600
     23 C18          6.4300     0.1770     0.7930 ca         1 UNL      -0.246300
     24 C19          6.8790    -0.4660    -0.3440 ca         1 UNL      -0.092000
     25 C20          6.0870    -0.3890    -1.4590 ca         1 UNL      -0.251300
     26 C21          4.8680     0.2340    -1.2890 ca         1 UNL       0.400200
     27 N1           4.3400     0.6750    -0.1020 nb         1 UNL      -0.676000
     28 H            4.8150     2.7010    -2.3050 h1         1 UNL       0.044033
     29 H1           3.8790     4.2000    -2.2290 h1         1 UNL       0.044033
     30 H2           3.8050     3.0000    -0.9250 h1         1 UNL       0.044033
     31 H3           6.2900     8.4260     0.2460 h4         1 UNL       0.171000
     32 H4           6.9210     6.4730    -1.4100 ha         1 UNL       0.155000
     33 H5           2.5830     4.7180     1.1750 h1         1 UNL       0.048700
     34 H6           3.7920     3.4870     0.8240 h1         1 UNL       0.048700
     35 H7           4.8730     3.9440     2.8380 hn         1 UNL       0.359800
     36 H8           3.2760     2.8010     4.2470 h1         1 UNL       0.054700
     37 H9           2.0250     3.2860     3.1440 h1         1 UNL       0.054700
     38 H10          2.4250     1.0080     2.7640 hc         1 UNL       0.057700
     39 H11          2.8980     1.8330     1.3640 hc         1 UNL       0.057700
     40 H12          6.0900     2.4660     2.7970 hc         1 UNL       0.057700
     41 H13          5.2190     1.9480     4.2480 hc         1 UNL       0.057700
     42 H14          7.6870     0.7120     3.0810 h1         1 UNL       0.046700
     43 H15          7.3590     1.2500     4.6190 h1         1 UNL       0.046700
     44 H16          3.8560    -0.1610     4.1760 hc         1 UNL       0.061700
     45 H17          3.5180    -1.0210     2.6830 hc         1 UNL       0.061700
     46 H18          5.6920    -2.5770     5.3140 hc         1 UNL       0.054450
     47 H19          4.0360    -2.4900     4.6960 hc         1 UNL       0.054450
     48 H20          4.3950    -4.0760     3.0240 hc         1 UNL       0.040700
     49 H21          5.5820    -4.6830     4.2020 hc         1 UNL       0.040700
     50 H22          6.4130    -4.1060     1.7130 hc         1 UNL       0.040700
     51 H23          7.3930    -3.5310     3.0800 hc         1 UNL       0.040700
     52 H24          5.3200    -2.0920     1.4750 hc         1 UNL       0.054450
     53 H25          7.0400    -1.7230     1.9570 hc         1 UNL       0.054450
     54 H26          7.1100     0.0820     1.6100 ha         1 UNL       0.145000
     55 H27          7.7890    -1.0530    -0.3020 ha         1 UNL       0.137000
     56 H28          6.4370    -0.7970    -2.3920 ha         1 UNL       0.144000
     57 H29          4.2520     0.4200    -2.1670 h4         1 UNL       0.021100
@<TRIPOS>BOND
     1     1     2 1   
     2     2     3 1   
     3     3     4 2   
     4     4     5 1   
     5     5     6 1   
     6     6     7 2   
     7     3     7 1   
     8     4     8 1   
     9     8     9 1   
    10     9    10 1   
    11    10    11 1   
    12    12    13 1   
    13    13    14 1   
    14    14    15 1   
    15    15    16 1   
    16    16    17 1   
    17    12    17 1   
    18    16    18 1   
    19    18    19 1   
    20    19    20 1   
    21    20    21 1   
    22    16    21 1   
    23    22    23 ar  
    24    23    24 ar  
    25    24    25 ar  
    26    25    26 ar  
    27    26    27 ar  
    28    22    27 ar  
    29     1    28 1   
    30     1    29 1   
    31     1    30 1   
    32     6    31 1   
    33     7    32 1   
    34     8    33 1   
    35     8    34 1   
    36     9    35 1   
    37    10    36 1   
    38    10    37 1   
    39    11    38 1   
    40    11    39 1   
    41    13    40 1   
    42    13    41 1   
    43    14    42 1   
    44    14    43 1   
    45    17    44 1   
    46    17    45 1   
    47    18    46 1   
    48    18    47 1   
    49    19    48 1   
    50    19    49 1   
    51    20    50 1   
    52    20    51 1   
    53    21    52 1   
    54    21    53 1   
    55    23    54 1   
    56    24    55 1   
    57    25    56 1   
    58    26    57 1   
    59    12    22 1   
    60    12    11 1   
@<TRIPOS>SUBSTRUCTURE
     1 UNL         1 TEMP              0 ****  ****    0 ROOT